5
 energy: -4.175217807456 gnorm: 0.000721282943 xtb: 6.5.1 (unknown)
C            0.00002002019742       -0.00000000010923        0.00000016219742
H            0.00000938567951        0.00000000006874        1.08164183739799
H            1.01980623600283        0.00000000006886       -0.36053392406105
H           -0.50986782098782       -0.88315588031868       -0.36055403780100
H           -0.50986782089194        0.88315588029031       -0.36055403773335
