6
 energy: -10.543382902723 gnorm: 0.000984542259 xtb: 6.5.1 (unknown)
C            0.03606319833226       -0.10238792754560        0.06907260960632
H            0.23751012891782       -0.13306241889964        1.14113932510591
H            0.99978987178418        0.00005156110414       -0.43098691651495
H           -0.48645339267149       -1.00510941386209       -0.26006695490068
N           -0.69096012633250        1.11476726864316       -0.17514124219200
O           -1.77330968003028        1.01490093056003       -0.70701682110461
